[board]
type=System
children=cache_hierarchy clk_domain dvfs_handler memory processor workload
auto_unlink_shared_backstore=false
cache_line_size=64
eventq_index=0
exit_on_work_items=true
init_param=0
m5ops_base=0
mem_mode=timing
mem_ranges=0:8589934592
memories=board.memory.mem_ctrl.dram
mmap_using_noreserve=false
multi_thread=false
num_work_ids=16
readfile=
redirect_paths=
shadow_rom_ranges=
shared_backstore=
symbolfile=
thermal_components=
thermal_model=Null
work_begin_ckpt_count=0
work_begin_cpu_id_exit=-1
work_begin_exit_count=0
work_cpus_ckpt_count=0
work_end_ckpt_count=0
work_end_exit_count=0
work_item_id=-1
workload=board.workload
system_port=board.cache_hierarchy.membus.cpu_side_ports[0]

[board.cache_hierarchy]
type=SubSystem
children=cc_l3cache dptw_caches0 dptw_caches1 dptw_caches2 dptw_caches3 dptw_caches4 dptw_caches5 dptw_caches6 dptw_caches7 iptw_caches0 iptw_caches1 iptw_caches2 iptw_caches3 iptw_caches4 iptw_caches5 iptw_caches6 iptw_caches7 l1dcaches0 l1dcaches1 l1dcaches2 l1dcaches3 l1dcaches4 l1dcaches5 l1dcaches6 l1dcaches7 l1icaches0 l1icaches1 l1icaches2 l1icaches3 l1icaches4 l1icaches5 l1icaches6 l1icaches7 l2bus l2cache l3bus membus
eventq_index=0
thermal_domain=Null

[board.cache_hierarchy.cc_l3cache]
type=CC_BankedCache
children=power_state prefetcher replacement_policy tags
addr_ranges=0:18446744073709551615
assoc=16
clk_domain=board.clk_domain
clusivity=mostly_incl
compressor=Null
data_latency=10
demand_mshr_reserve=1
eventq_index=0
is_read_only=false
max_miss_count=0
move_contractions=true
mshrs=20
num_banks=128
power_model=
power_state=board.cache_hierarchy.cc_l3cache.power_state
prefetcher=board.cache_hierarchy.cc_l3cache.prefetcher
replace_expansions=true
replacement_policy=board.cache_hierarchy.cc_l3cache.replacement_policy
response_latency=1
sequential_access=false
size=16777216
system=board
tag_latency=10
tags=board.cache_hierarchy.cc_l3cache.tags
tgts_per_mshr=12
warmup_percentage=0
write_allocator=Null
write_buffers=8
writeback_clean=false
cc_cpu_port=board.processor.cores0.core.cc_buffer.cc_mem_side_port board.processor.cores1.core.cc_buffer.cc_mem_side_port board.processor.cores2.core.cc_buffer.cc_mem_side_port board.processor.cores3.core.cc_buffer.cc_mem_side_port board.processor.cores4.core.cc_buffer.cc_mem_side_port board.processor.cores5.core.cc_buffer.cc_mem_side_port board.processor.cores6.core.cc_buffer.cc_mem_side_port board.processor.cores7.core.cc_buffer.cc_mem_side_port
cpu_side=board.cache_hierarchy.l3bus.mem_side_ports[0]
mem_side=board.cache_hierarchy.membus.cpu_side_ports[9]

[board.cache_hierarchy.cc_l3cache.power_state]
type=PowerState
clk_gate_bins=20
clk_gate_max=1000000000000
clk_gate_min=1000
default_state=UNDEFINED
eventq_index=0
leaders=
possible_states=

[board.cache_hierarchy.cc_l3cache.prefetcher]
type=StridePrefetcher
children=power_state table_indexing_policy table_replacement_policy
block_size=64
cache_snoop=false
clk_domain=board.clk_domain
confidence_counter_bits=3
confidence_threshold=50
degree=4
eventq_index=0
initial_confidence=4
latency=1
max_prefetch_requests_with_pending_translation=32
on_data=true
on_inst=false
on_miss=false
on_read=true
on_write=true
page_bytes=4096
power_model=
power_state=board.cache_hierarchy.cc_l3cache.prefetcher.power_state
prefetch_on_access=false
prefetch_on_pf_hit=false
queue_filter=true
queue_size=32
queue_squash=true
sys=board
table_assoc=4
table_entries=64
table_indexing_policy=board.cache_hierarchy.cc_l3cache.prefetcher.table_indexing_policy
table_replacement_policy=board.cache_hierarchy.cc_l3cache.prefetcher.table_replacement_policy
tag_prefetch=true
throttle_control_percentage=0
use_requestor_id=true
use_virtual_addresses=false

[board.cache_hierarchy.cc_l3cache.prefetcher.power_state]
type=PowerState
clk_gate_bins=20
clk_gate_max=1000000000000
clk_gate_min=1000
default_state=UNDEFINED
eventq_index=0
leaders=
possible_states=

[board.cache_hierarchy.cc_l3cache.prefetcher.table_indexing_policy]
type=StridePrefetcherHashedSetAssociative
assoc=4
entry_size=1
eventq_index=0
size=64

[board.cache_hierarchy.cc_l3cache.prefetcher.table_replacement_policy]
type=RandomRP
eventq_index=0

[board.cache_hierarchy.cc_l3cache.replacement_policy]
type=LRURP
eventq_index=0

[board.cache_hierarchy.cc_l3cache.tags]
type=BaseSetAssoc
children=indexing_policy power_state
assoc=16
block_size=64
clk_domain=board.clk_domain
entry_size=64
eventq_index=0
indexing_policy=board.cache_hierarchy.cc_l3cache.tags.indexing_policy
power_model=
power_state=board.cache_hierarchy.cc_l3cache.tags.power_state
replacement_policy=board.cache_hierarchy.cc_l3cache.replacement_policy
sequential_access=false
size=16777216
system=board
tag_latency=10
warmup_percentage=0

[board.cache_hierarchy.cc_l3cache.tags.indexing_policy]
type=SetAssociative
assoc=16
entry_size=64
eventq_index=0
size=16777216

[board.cache_hierarchy.cc_l3cache.tags.power_state]
type=PowerState
clk_gate_bins=20
clk_gate_max=1000000000000
clk_gate_min=1000
default_state=UNDEFINED
eventq_index=0
leaders=
possible_states=

[board.cache_hierarchy.dptw_caches0]
type=Cache
children=power_state replacement_policy tags
addr_ranges=0:18446744073709551615
assoc=4
clk_domain=board.clk_domain
clusivity=mostly_incl
compressor=Null
data_latency=1
demand_mshr_reserve=1
eventq_index=0
is_read_only=false
max_miss_count=0
move_contractions=true
mshrs=20
power_model=
power_state=board.cache_hierarchy.dptw_caches0.power_state
prefetcher=Null
replace_expansions=true
replacement_policy=board.cache_hierarchy.dptw_caches0.replacement_policy
response_latency=1
sequential_access=false
size=8192
system=board
tag_latency=1
tags=board.cache_hierarchy.dptw_caches0.tags
tgts_per_mshr=12
warmup_percentage=0
write_allocator=Null
write_buffers=8
writeback_clean=false
cpu_side=board.processor.cores0.core.mmu.dtb.walker.port
mem_side=board.cache_hierarchy.l2bus.cpu_side_ports[3]

[board.cache_hierarchy.dptw_caches0.power_state]
type=PowerState
clk_gate_bins=20
clk_gate_max=1000000000000
clk_gate_min=1000
default_state=UNDEFINED
eventq_index=0
leaders=
possible_states=

[board.cache_hierarchy.dptw_caches0.replacement_policy]
type=LRURP
eventq_index=0

[board.cache_hierarchy.dptw_caches0.tags]
type=BaseSetAssoc
children=indexing_policy power_state
assoc=4
block_size=64
clk_domain=board.clk_domain
entry_size=64
eventq_index=0
indexing_policy=board.cache_hierarchy.dptw_caches0.tags.indexing_policy
power_model=
power_state=board.cache_hierarchy.dptw_caches0.tags.power_state
replacement_policy=board.cache_hierarchy.dptw_caches0.replacement_policy
sequential_access=false
size=8192
system=board
tag_latency=1
warmup_percentage=0

[board.cache_hierarchy.dptw_caches0.tags.indexing_policy]
type=SetAssociative
assoc=4
entry_size=64
eventq_index=0
size=8192

[board.cache_hierarchy.dptw_caches0.tags.power_state]
type=PowerState
clk_gate_bins=20
clk_gate_max=1000000000000
clk_gate_min=1000
default_state=UNDEFINED
eventq_index=0
leaders=
possible_states=

[board.cache_hierarchy.dptw_caches1]
type=Cache
children=power_state replacement_policy tags
addr_ranges=0:18446744073709551615
assoc=4
clk_domain=board.clk_domain
clusivity=mostly_incl
compressor=Null
data_latency=1
demand_mshr_reserve=1
eventq_index=0
is_read_only=false
max_miss_count=0
move_contractions=true
mshrs=20
power_model=
power_state=board.cache_hierarchy.dptw_caches1.power_state
prefetcher=Null
replace_expansions=true
replacement_policy=board.cache_hierarchy.dptw_caches1.replacement_policy
response_latency=1
sequential_access=false
size=8192
system=board
tag_latency=1
tags=board.cache_hierarchy.dptw_caches1.tags
tgts_per_mshr=12
warmup_percentage=0
write_allocator=Null
write_buffers=8
writeback_clean=false
cpu_side=board.processor.cores1.core.mmu.dtb.walker.port
mem_side=board.cache_hierarchy.l2bus.cpu_side_ports[7]

[board.cache_hierarchy.dptw_caches1.power_state]
type=PowerState
clk_gate_bins=20
clk_gate_max=1000000000000
clk_gate_min=1000
default_state=UNDEFINED
eventq_index=0
leaders=
possible_states=

[board.cache_hierarchy.dptw_caches1.replacement_policy]
type=LRURP
eventq_index=0

[board.cache_hierarchy.dptw_caches1.tags]
type=BaseSetAssoc
children=indexing_policy power_state
assoc=4
block_size=64
clk_domain=board.clk_domain
entry_size=64
eventq_index=0
indexing_policy=board.cache_hierarchy.dptw_caches1.tags.indexing_policy
power_model=
power_state=board.cache_hierarchy.dptw_caches1.tags.power_state
replacement_policy=board.cache_hierarchy.dptw_caches1.replacement_policy
sequential_access=false
size=8192
system=board
tag_latency=1
warmup_percentage=0

[board.cache_hierarchy.dptw_caches1.tags.indexing_policy]
type=SetAssociative
assoc=4
entry_size=64
eventq_index=0
size=8192

[board.cache_hierarchy.dptw_caches1.tags.power_state]
type=PowerState
clk_gate_bins=20
clk_gate_max=1000000000000
clk_gate_min=1000
default_state=UNDEFINED
eventq_index=0
leaders=
possible_states=

[board.cache_hierarchy.dptw_caches2]
type=Cache
children=power_state replacement_policy tags
addr_ranges=0:18446744073709551615
assoc=4
clk_domain=board.clk_domain
clusivity=mostly_incl
compressor=Null
data_latency=1
demand_mshr_reserve=1
eventq_index=0
is_read_only=false
max_miss_count=0
move_contractions=true
mshrs=20
power_model=
power_state=board.cache_hierarchy.dptw_caches2.power_state
prefetcher=Null
replace_expansions=true
replacement_policy=board.cache_hierarchy.dptw_caches2.replacement_policy
response_latency=1
sequential_access=false
size=8192
system=board
tag_latency=1
tags=board.cache_hierarchy.dptw_caches2.tags
tgts_per_mshr=12
warmup_percentage=0
write_allocator=Null
write_buffers=8
writeback_clean=false
cpu_side=board.processor.cores2.core.mmu.dtb.walker.port
mem_side=board.cache_hierarchy.l2bus.cpu_side_ports[11]

[board.cache_hierarchy.dptw_caches2.power_state]
type=PowerState
clk_gate_bins=20
clk_gate_max=1000000000000
clk_gate_min=1000
default_state=UNDEFINED
eventq_index=0
leaders=
possible_states=

[board.cache_hierarchy.dptw_caches2.replacement_policy]
type=LRURP
eventq_index=0

[board.cache_hierarchy.dptw_caches2.tags]
type=BaseSetAssoc
children=indexing_policy power_state
assoc=4
block_size=64
clk_domain=board.clk_domain
entry_size=64
eventq_index=0
indexing_policy=board.cache_hierarchy.dptw_caches2.tags.indexing_policy
power_model=
power_state=board.cache_hierarchy.dptw_caches2.tags.power_state
replacement_policy=board.cache_hierarchy.dptw_caches2.replacement_policy
sequential_access=false
size=8192
system=board
tag_latency=1
warmup_percentage=0

[board.cache_hierarchy.dptw_caches2.tags.indexing_policy]
type=SetAssociative
assoc=4
entry_size=64
eventq_index=0
size=8192

[board.cache_hierarchy.dptw_caches2.tags.power_state]
type=PowerState
clk_gate_bins=20
clk_gate_max=1000000000000
clk_gate_min=1000
default_state=UNDEFINED
eventq_index=0
leaders=
possible_states=

[board.cache_hierarchy.dptw_caches3]
type=Cache
children=power_state replacement_policy tags
addr_ranges=0:18446744073709551615
assoc=4
clk_domain=board.clk_domain
clusivity=mostly_incl
compressor=Null
data_latency=1
demand_mshr_reserve=1
eventq_index=0
is_read_only=false
max_miss_count=0
move_contractions=true
mshrs=20
power_model=
power_state=board.cache_hierarchy.dptw_caches3.power_state
prefetcher=Null
replace_expansions=true
replacement_policy=board.cache_hierarchy.dptw_caches3.replacement_policy
response_latency=1
sequential_access=false
size=8192
system=board
tag_latency=1
tags=board.cache_hierarchy.dptw_caches3.tags
tgts_per_mshr=12
warmup_percentage=0
write_allocator=Null
write_buffers=8
writeback_clean=false
cpu_side=board.processor.cores3.core.mmu.dtb.walker.port
mem_side=board.cache_hierarchy.l2bus.cpu_side_ports[15]

[board.cache_hierarchy.dptw_caches3.power_state]
type=PowerState
clk_gate_bins=20
clk_gate_max=1000000000000
clk_gate_min=1000
default_state=UNDEFINED
eventq_index=0
leaders=
possible_states=

[board.cache_hierarchy.dptw_caches3.replacement_policy]
type=LRURP
eventq_index=0

[board.cache_hierarchy.dptw_caches3.tags]
type=BaseSetAssoc
children=indexing_policy power_state
assoc=4
block_size=64
clk_domain=board.clk_domain
entry_size=64
eventq_index=0
indexing_policy=board.cache_hierarchy.dptw_caches3.tags.indexing_policy
power_model=
power_state=board.cache_hierarchy.dptw_caches3.tags.power_state
replacement_policy=board.cache_hierarchy.dptw_caches3.replacement_policy
sequential_access=false
size=8192
system=board
tag_latency=1
warmup_percentage=0

[board.cache_hierarchy.dptw_caches3.tags.indexing_policy]
type=SetAssociative
assoc=4
entry_size=64
eventq_index=0
size=8192

[board.cache_hierarchy.dptw_caches3.tags.power_state]
type=PowerState
clk_gate_bins=20
clk_gate_max=1000000000000
clk_gate_min=1000
default_state=UNDEFINED
eventq_index=0
leaders=
possible_states=

[board.cache_hierarchy.dptw_caches4]
type=Cache
children=power_state replacement_policy tags
addr_ranges=0:18446744073709551615
assoc=4
clk_domain=board.clk_domain
clusivity=mostly_incl
compressor=Null
data_latency=1
demand_mshr_reserve=1
eventq_index=0
is_read_only=false
max_miss_count=0
move_contractions=true
mshrs=20
power_model=
power_state=board.cache_hierarchy.dptw_caches4.power_state
prefetcher=Null
replace_expansions=true
replacement_policy=board.cache_hierarchy.dptw_caches4.replacement_policy
response_latency=1
sequential_access=false
size=8192
system=board
tag_latency=1
tags=board.cache_hierarchy.dptw_caches4.tags
tgts_per_mshr=12
warmup_percentage=0
write_allocator=Null
write_buffers=8
writeback_clean=false
cpu_side=board.processor.cores4.core.mmu.dtb.walker.port
mem_side=board.cache_hierarchy.l2bus.cpu_side_ports[19]

[board.cache_hierarchy.dptw_caches4.power_state]
type=PowerState
clk_gate_bins=20
clk_gate_max=1000000000000
clk_gate_min=1000
default_state=UNDEFINED
eventq_index=0
leaders=
possible_states=

[board.cache_hierarchy.dptw_caches4.replacement_policy]
type=LRURP
eventq_index=0

[board.cache_hierarchy.dptw_caches4.tags]
type=BaseSetAssoc
children=indexing_policy power_state
assoc=4
block_size=64
clk_domain=board.clk_domain
entry_size=64
eventq_index=0
indexing_policy=board.cache_hierarchy.dptw_caches4.tags.indexing_policy
power_model=
power_state=board.cache_hierarchy.dptw_caches4.tags.power_state
replacement_policy=board.cache_hierarchy.dptw_caches4.replacement_policy
sequential_access=false
size=8192
system=board
tag_latency=1
warmup_percentage=0

[board.cache_hierarchy.dptw_caches4.tags.indexing_policy]
type=SetAssociative
assoc=4
entry_size=64
eventq_index=0
size=8192

[board.cache_hierarchy.dptw_caches4.tags.power_state]
type=PowerState
clk_gate_bins=20
clk_gate_max=1000000000000
clk_gate_min=1000
default_state=UNDEFINED
eventq_index=0
leaders=
possible_states=

[board.cache_hierarchy.dptw_caches5]
type=Cache
children=power_state replacement_policy tags
addr_ranges=0:18446744073709551615
assoc=4
clk_domain=board.clk_domain
clusivity=mostly_incl
compressor=Null
data_latency=1
demand_mshr_reserve=1
eventq_index=0
is_read_only=false
max_miss_count=0
move_contractions=true
mshrs=20
power_model=
power_state=board.cache_hierarchy.dptw_caches5.power_state
prefetcher=Null
replace_expansions=true
replacement_policy=board.cache_hierarchy.dptw_caches5.replacement_policy
response_latency=1
sequential_access=false
size=8192
system=board
tag_latency=1
tags=board.cache_hierarchy.dptw_caches5.tags
tgts_per_mshr=12
warmup_percentage=0
write_allocator=Null
write_buffers=8
writeback_clean=false
cpu_side=board.processor.cores5.core.mmu.dtb.walker.port
mem_side=board.cache_hierarchy.l2bus.cpu_side_ports[23]

[board.cache_hierarchy.dptw_caches5.power_state]
type=PowerState
clk_gate_bins=20
clk_gate_max=1000000000000
clk_gate_min=1000
default_state=UNDEFINED
eventq_index=0
leaders=
possible_states=

[board.cache_hierarchy.dptw_caches5.replacement_policy]
type=LRURP
eventq_index=0

[board.cache_hierarchy.dptw_caches5.tags]
type=BaseSetAssoc
children=indexing_policy power_state
assoc=4
block_size=64
clk_domain=board.clk_domain
entry_size=64
eventq_index=0
indexing_policy=board.cache_hierarchy.dptw_caches5.tags.indexing_policy
power_model=
power_state=board.cache_hierarchy.dptw_caches5.tags.power_state
replacement_policy=board.cache_hierarchy.dptw_caches5.replacement_policy
sequential_access=false
size=8192
system=board
tag_latency=1
warmup_percentage=0

[board.cache_hierarchy.dptw_caches5.tags.indexing_policy]
type=SetAssociative
assoc=4
entry_size=64
eventq_index=0
size=8192

[board.cache_hierarchy.dptw_caches5.tags.power_state]
type=PowerState
clk_gate_bins=20
clk_gate_max=1000000000000
clk_gate_min=1000
default_state=UNDEFINED
eventq_index=0
leaders=
possible_states=

[board.cache_hierarchy.dptw_caches6]
type=Cache
children=power_state replacement_policy tags
addr_ranges=0:18446744073709551615
assoc=4
clk_domain=board.clk_domain
clusivity=mostly_incl
compressor=Null
data_latency=1
demand_mshr_reserve=1
eventq_index=0
is_read_only=false
max_miss_count=0
move_contractions=true
mshrs=20
power_model=
power_state=board.cache_hierarchy.dptw_caches6.power_state
prefetcher=Null
replace_expansions=true
replacement_policy=board.cache_hierarchy.dptw_caches6.replacement_policy
response_latency=1
sequential_access=false
size=8192
system=board
tag_latency=1
tags=board.cache_hierarchy.dptw_caches6.tags
tgts_per_mshr=12
warmup_percentage=0
write_allocator=Null
write_buffers=8
writeback_clean=false
cpu_side=board.processor.cores6.core.mmu.dtb.walker.port
mem_side=board.cache_hierarchy.l2bus.cpu_side_ports[27]

[board.cache_hierarchy.dptw_caches6.power_state]
type=PowerState
clk_gate_bins=20
clk_gate_max=1000000000000
clk_gate_min=1000
default_state=UNDEFINED
eventq_index=0
leaders=
possible_states=

[board.cache_hierarchy.dptw_caches6.replacement_policy]
type=LRURP
eventq_index=0

[board.cache_hierarchy.dptw_caches6.tags]
type=BaseSetAssoc
children=indexing_policy power_state
assoc=4
block_size=64
clk_domain=board.clk_domain
entry_size=64
eventq_index=0
indexing_policy=board.cache_hierarchy.dptw_caches6.tags.indexing_policy
power_model=
power_state=board.cache_hierarchy.dptw_caches6.tags.power_state
replacement_policy=board.cache_hierarchy.dptw_caches6.replacement_policy
sequential_access=false
size=8192
system=board
tag_latency=1
warmup_percentage=0

[board.cache_hierarchy.dptw_caches6.tags.indexing_policy]
type=SetAssociative
assoc=4
entry_size=64
eventq_index=0
size=8192

[board.cache_hierarchy.dptw_caches6.tags.power_state]
type=PowerState
clk_gate_bins=20
clk_gate_max=1000000000000
clk_gate_min=1000
default_state=UNDEFINED
eventq_index=0
leaders=
possible_states=

[board.cache_hierarchy.dptw_caches7]
type=Cache
children=power_state replacement_policy tags
addr_ranges=0:18446744073709551615
assoc=4
clk_domain=board.clk_domain
clusivity=mostly_incl
compressor=Null
data_latency=1
demand_mshr_reserve=1
eventq_index=0
is_read_only=false
max_miss_count=0
move_contractions=true
mshrs=20
power_model=
power_state=board.cache_hierarchy.dptw_caches7.power_state
prefetcher=Null
replace_expansions=true
replacement_policy=board.cache_hierarchy.dptw_caches7.replacement_policy
response_latency=1
sequential_access=false
size=8192
system=board
tag_latency=1
tags=board.cache_hierarchy.dptw_caches7.tags
tgts_per_mshr=12
warmup_percentage=0
write_allocator=Null
write_buffers=8
writeback_clean=false
cpu_side=board.processor.cores7.core.mmu.dtb.walker.port
mem_side=board.cache_hierarchy.l2bus.cpu_side_ports[31]

[board.cache_hierarchy.dptw_caches7.power_state]
type=PowerState
clk_gate_bins=20
clk_gate_max=1000000000000
clk_gate_min=1000
default_state=UNDEFINED
eventq_index=0
leaders=
possible_states=

[board.cache_hierarchy.dptw_caches7.replacement_policy]
type=LRURP
eventq_index=0

[board.cache_hierarchy.dptw_caches7.tags]
type=BaseSetAssoc
children=indexing_policy power_state
assoc=4
block_size=64
clk_domain=board.clk_domain
entry_size=64
eventq_index=0
indexing_policy=board.cache_hierarchy.dptw_caches7.tags.indexing_policy
power_model=
power_state=board.cache_hierarchy.dptw_caches7.tags.power_state
replacement_policy=board.cache_hierarchy.dptw_caches7.replacement_policy
sequential_access=false
size=8192
system=board
tag_latency=1
warmup_percentage=0

[board.cache_hierarchy.dptw_caches7.tags.indexing_policy]
type=SetAssociative
assoc=4
entry_size=64
eventq_index=0
size=8192

[board.cache_hierarchy.dptw_caches7.tags.power_state]
type=PowerState
clk_gate_bins=20
clk_gate_max=1000000000000
clk_gate_min=1000
default_state=UNDEFINED
eventq_index=0
leaders=
possible_states=

[board.cache_hierarchy.iptw_caches0]
type=Cache
children=power_state replacement_policy tags
addr_ranges=0:18446744073709551615
assoc=4
clk_domain=board.clk_domain
clusivity=mostly_incl
compressor=Null
data_latency=1
demand_mshr_reserve=1
eventq_index=0
is_read_only=false
max_miss_count=0
move_contractions=true
mshrs=20
power_model=
power_state=board.cache_hierarchy.iptw_caches0.power_state
prefetcher=Null
replace_expansions=true
replacement_policy=board.cache_hierarchy.iptw_caches0.replacement_policy
response_latency=1
sequential_access=false
size=8192
system=board
tag_latency=1
tags=board.cache_hierarchy.iptw_caches0.tags
tgts_per_mshr=12
warmup_percentage=0
write_allocator=Null
write_buffers=8
writeback_clean=false
cpu_side=board.processor.cores0.core.mmu.itb.walker.port
mem_side=board.cache_hierarchy.l2bus.cpu_side_ports[2]

[board.cache_hierarchy.iptw_caches0.power_state]
type=PowerState
clk_gate_bins=20
clk_gate_max=1000000000000
clk_gate_min=1000
default_state=UNDEFINED
eventq_index=0
leaders=
possible_states=

[board.cache_hierarchy.iptw_caches0.replacement_policy]
type=LRURP
eventq_index=0

[board.cache_hierarchy.iptw_caches0.tags]
type=BaseSetAssoc
children=indexing_policy power_state
assoc=4
block_size=64
clk_domain=board.clk_domain
entry_size=64
eventq_index=0
indexing_policy=board.cache_hierarchy.iptw_caches0.tags.indexing_policy
power_model=
power_state=board.cache_hierarchy.iptw_caches0.tags.power_state
replacement_policy=board.cache_hierarchy.iptw_caches0.replacement_policy
sequential_access=false
size=8192
system=board
tag_latency=1
warmup_percentage=0

[board.cache_hierarchy.iptw_caches0.tags.indexing_policy]
type=SetAssociative
assoc=4
entry_size=64
eventq_index=0
size=8192

[board.cache_hierarchy.iptw_caches0.tags.power_state]
type=PowerState
clk_gate_bins=20
clk_gate_max=1000000000000
clk_gate_min=1000
default_state=UNDEFINED
eventq_index=0
leaders=
possible_states=

[board.cache_hierarchy.iptw_caches1]
type=Cache
children=power_state replacement_policy tags
addr_ranges=0:18446744073709551615
assoc=4
clk_domain=board.clk_domain
clusivity=mostly_incl
compressor=Null
data_latency=1
demand_mshr_reserve=1
eventq_index=0
is_read_only=false
max_miss_count=0
move_contractions=true
mshrs=20
power_model=
power_state=board.cache_hierarchy.iptw_caches1.power_state
prefetcher=Null
replace_expansions=true
replacement_policy=board.cache_hierarchy.iptw_caches1.replacement_policy
response_latency=1
sequential_access=false
size=8192
system=board
tag_latency=1
tags=board.cache_hierarchy.iptw_caches1.tags
tgts_per_mshr=12
warmup_percentage=0
write_allocator=Null
write_buffers=8
writeback_clean=false
cpu_side=board.processor.cores1.core.mmu.itb.walker.port
mem_side=board.cache_hierarchy.l2bus.cpu_side_ports[6]

[board.cache_hierarchy.iptw_caches1.power_state]
type=PowerState
clk_gate_bins=20
clk_gate_max=1000000000000
clk_gate_min=1000
default_state=UNDEFINED
eventq_index=0
leaders=
possible_states=

[board.cache_hierarchy.iptw_caches1.replacement_policy]
type=LRURP
eventq_index=0

[board.cache_hierarchy.iptw_caches1.tags]
type=BaseSetAssoc
children=indexing_policy power_state
assoc=4
block_size=64
clk_domain=board.clk_domain
entry_size=64
eventq_index=0
indexing_policy=board.cache_hierarchy.iptw_caches1.tags.indexing_policy
power_model=
power_state=board.cache_hierarchy.iptw_caches1.tags.power_state
replacement_policy=board.cache_hierarchy.iptw_caches1.replacement_policy
sequential_access=false
size=8192
system=board
tag_latency=1
warmup_percentage=0

[board.cache_hierarchy.iptw_caches1.tags.indexing_policy]
type=SetAssociative
assoc=4
entry_size=64
eventq_index=0
size=8192

[board.cache_hierarchy.iptw_caches1.tags.power_state]
type=PowerState
clk_gate_bins=20
clk_gate_max=1000000000000
clk_gate_min=1000
default_state=UNDEFINED
eventq_index=0
leaders=
possible_states=

[board.cache_hierarchy.iptw_caches2]
type=Cache
children=power_state replacement_policy tags
addr_ranges=0:18446744073709551615
assoc=4
clk_domain=board.clk_domain
clusivity=mostly_incl
compressor=Null
data_latency=1
demand_mshr_reserve=1
eventq_index=0
is_read_only=false
max_miss_count=0
move_contractions=true
mshrs=20
power_model=
power_state=board.cache_hierarchy.iptw_caches2.power_state
prefetcher=Null
replace_expansions=true
replacement_policy=board.cache_hierarchy.iptw_caches2.replacement_policy
response_latency=1
sequential_access=false
size=8192
system=board
tag_latency=1
tags=board.cache_hierarchy.iptw_caches2.tags
tgts_per_mshr=12
warmup_percentage=0
write_allocator=Null
write_buffers=8
writeback_clean=false
cpu_side=board.processor.cores2.core.mmu.itb.walker.port
mem_side=board.cache_hierarchy.l2bus.cpu_side_ports[10]

[board.cache_hierarchy.iptw_caches2.power_state]
type=PowerState
clk_gate_bins=20
clk_gate_max=1000000000000
clk_gate_min=1000
default_state=UNDEFINED
eventq_index=0
leaders=
possible_states=

[board.cache_hierarchy.iptw_caches2.replacement_policy]
type=LRURP
eventq_index=0

[board.cache_hierarchy.iptw_caches2.tags]
type=BaseSetAssoc
children=indexing_policy power_state
assoc=4
block_size=64
clk_domain=board.clk_domain
entry_size=64
eventq_index=0
indexing_policy=board.cache_hierarchy.iptw_caches2.tags.indexing_policy
power_model=
power_state=board.cache_hierarchy.iptw_caches2.tags.power_state
replacement_policy=board.cache_hierarchy.iptw_caches2.replacement_policy
sequential_access=false
size=8192
system=board
tag_latency=1
warmup_percentage=0

[board.cache_hierarchy.iptw_caches2.tags.indexing_policy]
type=SetAssociative
assoc=4
entry_size=64
eventq_index=0
size=8192

[board.cache_hierarchy.iptw_caches2.tags.power_state]
type=PowerState
clk_gate_bins=20
clk_gate_max=1000000000000
clk_gate_min=1000
default_state=UNDEFINED
eventq_index=0
leaders=
possible_states=

[board.cache_hierarchy.iptw_caches3]
type=Cache
children=power_state replacement_policy tags
addr_ranges=0:18446744073709551615
assoc=4
clk_domain=board.clk_domain
clusivity=mostly_incl
compressor=Null
data_latency=1
demand_mshr_reserve=1
eventq_index=0
is_read_only=false
max_miss_count=0
move_contractions=true
mshrs=20
power_model=
power_state=board.cache_hierarchy.iptw_caches3.power_state
prefetcher=Null
replace_expansions=true
replacement_policy=board.cache_hierarchy.iptw_caches3.replacement_policy
response_latency=1
sequential_access=false
size=8192
system=board
tag_latency=1
tags=board.cache_hierarchy.iptw_caches3.tags
tgts_per_mshr=12
warmup_percentage=0
write_allocator=Null
write_buffers=8
writeback_clean=false
cpu_side=board.processor.cores3.core.mmu.itb.walker.port
mem_side=board.cache_hierarchy.l2bus.cpu_side_ports[14]

[board.cache_hierarchy.iptw_caches3.power_state]
type=PowerState
clk_gate_bins=20
clk_gate_max=1000000000000
clk_gate_min=1000
default_state=UNDEFINED
eventq_index=0
leaders=
possible_states=

[board.cache_hierarchy.iptw_caches3.replacement_policy]
type=LRURP
eventq_index=0

[board.cache_hierarchy.iptw_caches3.tags]
type=BaseSetAssoc
children=indexing_policy power_state
assoc=4
block_size=64
clk_domain=board.clk_domain
entry_size=64
eventq_index=0
indexing_policy=board.cache_hierarchy.iptw_caches3.tags.indexing_policy
power_model=
power_state=board.cache_hierarchy.iptw_caches3.tags.power_state
replacement_policy=board.cache_hierarchy.iptw_caches3.replacement_policy
sequential_access=false
size=8192
system=board
tag_latency=1
warmup_percentage=0

[board.cache_hierarchy.iptw_caches3.tags.indexing_policy]
type=SetAssociative
assoc=4
entry_size=64
eventq_index=0
size=8192

[board.cache_hierarchy.iptw_caches3.tags.power_state]
type=PowerState
clk_gate_bins=20
clk_gate_max=1000000000000
clk_gate_min=1000
default_state=UNDEFINED
eventq_index=0
leaders=
possible_states=

[board.cache_hierarchy.iptw_caches4]
type=Cache
children=power_state replacement_policy tags
addr_ranges=0:18446744073709551615
assoc=4
clk_domain=board.clk_domain
clusivity=mostly_incl
compressor=Null
data_latency=1
demand_mshr_reserve=1
eventq_index=0
is_read_only=false
max_miss_count=0
move_contractions=true
mshrs=20
power_model=
power_state=board.cache_hierarchy.iptw_caches4.power_state
prefetcher=Null
replace_expansions=true
replacement_policy=board.cache_hierarchy.iptw_caches4.replacement_policy
response_latency=1
sequential_access=false
size=8192
system=board
tag_latency=1
tags=board.cache_hierarchy.iptw_caches4.tags
tgts_per_mshr=12
warmup_percentage=0
write_allocator=Null
write_buffers=8
writeback_clean=false
cpu_side=board.processor.cores4.core.mmu.itb.walker.port
mem_side=board.cache_hierarchy.l2bus.cpu_side_ports[18]

[board.cache_hierarchy.iptw_caches4.power_state]
type=PowerState
clk_gate_bins=20
clk_gate_max=1000000000000
clk_gate_min=1000
default_state=UNDEFINED
eventq_index=0
leaders=
possible_states=

[board.cache_hierarchy.iptw_caches4.replacement_policy]
type=LRURP
eventq_index=0

[board.cache_hierarchy.iptw_caches4.tags]
type=BaseSetAssoc
children=indexing_policy power_state
assoc=4
block_size=64
clk_domain=board.clk_domain
entry_size=64
eventq_index=0
indexing_policy=board.cache_hierarchy.iptw_caches4.tags.indexing_policy
power_model=
power_state=board.cache_hierarchy.iptw_caches4.tags.power_state
replacement_policy=board.cache_hierarchy.iptw_caches4.replacement_policy
sequential_access=false
size=8192
system=board
tag_latency=1
warmup_percentage=0

[board.cache_hierarchy.iptw_caches4.tags.indexing_policy]
type=SetAssociative
assoc=4
entry_size=64
eventq_index=0
size=8192

[board.cache_hierarchy.iptw_caches4.tags.power_state]
type=PowerState
clk_gate_bins=20
clk_gate_max=1000000000000
clk_gate_min=1000
default_state=UNDEFINED